<?xml version="1.0" encoding="UTF-8"?>

<!-- generated on 2025-03-22 17:02:20 by Eclipse SUMO netedit Version 1.22.0
-->

<routes xmlns:xsi="http://www.w3.org/2001/XMLSchema-instance" xsi:noNamespaceSchemaLocation="http://sumo.dlr.de/xsd/routes_file.xsd">
    <!-- Vehicles, persons and containers (sorted by depart) -->
    <flow id="f_0" begin="0.00" from="Node2_7_SB" to="E27" via="E26" end="3600.00" vehsPerHour="1800"/>
    <flow id="f_1" begin="0.00" from="Node1_2_EB" to="E27" via="E24 E26" end="3600.00" vehsPerHour="1800"/>
    <flow id="f_2" begin="0.00" from="-E26" to="Node1_2_WB" via="-E25 Node2_3_WB" end="3600.00" vehsPerHour="1800"/>
</routes>
