<?xml version="1.0" encoding="UTF-8"?>

<!-- generated on 2025-03-21 22:58:10 by Eclipse SUMO netedit Version 1.22.0
<neteditConfiguration xmlns:xsi="http://www.w3.org/2001/XMLSchema-instance" xsi:noNamespaceSchemaLocation="http://sumo.dlr.de/xsd/neteditConfiguration.xsd">

    <input>
        <sumocfg-file value="C:\Users\tar30\PycharmProjects\PythonProject6\Test1.sumocfg"/>
        <sumo-net-file value="C:\Users\tar30\PycharmProjects\PythonProject6\Test1.net.xml"/>
    </input>

    <output>
        <output-file value="C:\Users\tar30\PycharmProjects\PythonProject6\Test1.net.xml"/>
    </output>

    <processing>
        <offset.disable-normalization value="true"/>
    </processing>

    <junctions>
        <no-turnarounds value="true"/>
    </junctions>

    <netedit>
        <new-network value="false"/>
    </netedit>

</neteditConfiguration>
-->

<net version="1.20" junctionCornerDetail="5" limitTurnSpeed="5.50" xmlns:xsi="http://www.w3.org/2001/XMLSchema-instance" xsi:noNamespaceSchemaLocation="http://sumo.dlr.de/xsd/net_file.xsd">

    <location netOffset="0.00,0.00" convBoundary="-38.37,-20.84,41.27,16.27" origBoundary="10000000000.00,10000000000.00,-10000000000.00,-10000000000.00" projParameter="!"/>

    <edge id=":Node1_0" function="internal">
        <lane id=":Node1_0_0" index="0" speed="6.08" length="7.72" shape="-35.04,17.32 -37.13,17.02 -38.63,16.13 -39.53,14.63 -39.84,12.54"/>
    </edge>
    <edge id=":Node1_1" function="internal">
        <lane id=":Node1_1_0" index="0" speed="3.90" length="2.57" shape="-36.64,12.53 -36.54,13.22 -36.24,13.72 -35.74,14.02 -35.04,14.12"/>
    </edge>
    <edge id=":Node2_0" function="internal">
        <lane id=":Node2_0_0" index="0" speed="13.89" length="14.26" shape="14.87,17.44 0.61,17.32"/>
    </edge>
    <edge id=":Node2_1" function="internal">
        <lane id=":Node2_1_0" index="0" speed="8.01" length="3.99" shape="14.87,17.44 11.06,16.83 10.95,16.77"/>
    </edge>
    <edge id=":Node2_6" function="internal">
        <lane id=":Node2_6_0" index="0" speed="8.01" length="10.13" shape="10.95,16.77 8.34,15.15 6.73,12.39 6.21,8.56"/>
    </edge>
    <edge id=":Node2_2" function="internal">
        <lane id=":Node2_2_0" index="0" speed="6.51" length="8.98" shape="9.41,8.59 9.74,11.03 10.77,12.78 12.50,13.85 14.92,14.24"/>
    </edge>
    <edge id=":Node2_3" function="internal">
        <lane id=":Node2_3_0" index="0" speed="8.00" length="14.11" shape="9.41,8.59 8.84,12.41 7.18,15.14 4.44,16.77 0.61,17.32"/>
    </edge>
    <edge id=":Node2_4" function="internal">
        <lane id=":Node2_4_0" index="0" speed="6.51" length="8.98" shape="0.61,14.12 3.05,13.77 4.79,12.73 5.85,10.99 6.21,8.56"/>
    </edge>
    <edge id=":Node2_5" function="internal">
        <lane id=":Node2_5_0" index="0" speed="13.89" length="14.31" shape="0.61,14.12 14.92,14.24"/>
    </edge>
    <edge id=":Node3_0" function="internal">
        <lane id=":Node3_0_0" index="0" speed="6.08" length="7.69" shape="41.99,13.15 41.64,15.22 40.70,16.69 39.20,17.56 37.11,17.82"/>
    </edge>
    <edge id=":Node3_1" function="internal">
        <lane id=":Node3_1_0" index="0" speed="3.90" length="2.56" shape="37.16,14.62 37.86,14.53 38.36,14.24 38.67,13.75 38.79,13.06"/>
    </edge>
    <edge id=":Node4_0" function="internal">
        <lane id=":Node4_0_0" index="0" speed="6.08" length="7.60" shape="-39.95,-15.64 -39.67,-17.70 -38.80,-19.19 -37.34,-20.11 -35.30,-20.46"/>
    </edge>
    <edge id=":Node4_1" function="internal">
        <lane id=":Node4_1_0" index="0" speed="3.91" length="2.53" shape="-35.20,-17.26 -35.88,-17.14 -36.37,-16.84 -36.66,-16.34 -36.75,-15.66"/>
    </edge>
    <edge id=":Node5_0" function="internal">
        <lane id=":Node5_0_0" index="0" speed="6.63" length="9.20" shape="15.17,-18.70 12.74,-18.29 11.00,-17.17 9.94,-15.35 9.58,-12.82"/>
    </edge>
    <edge id=":Node5_1" function="internal">
        <lane id=":Node5_1_0" index="0" speed="13.89" length="14.42" shape="15.17,-18.70 0.76,-18.33"/>
    </edge>
    <edge id=":Node5_2" function="internal">
        <lane id=":Node5_2_0" index="0" speed="13.89" length="14.45" shape="0.67,-21.53 15.11,-21.90"/>
    </edge>
    <edge id=":Node5_3" function="internal">
        <lane id=":Node5_3_0" index="0" speed="7.93" length="4.13" shape="0.67,-21.53 4.59,-21.09 4.75,-21.00"/>
    </edge>
    <edge id=":Node5_6" function="internal">
        <lane id=":Node5_6_0" index="0" speed="7.93" length="10.21" shape="4.75,-21.00 7.38,-19.49 9.05,-16.73 9.58,-12.82"/>
    </edge>
    <edge id=":Node5_4" function="internal">
        <lane id=":Node5_4_0" index="0" speed="6.43" length="9.03" shape="6.38,-12.84 6.04,-15.31 4.99,-17.05 3.23,-18.05 0.76,-18.33"/>
    </edge>
    <edge id=":Node5_5" function="internal">
        <lane id=":Node5_5_0" index="0" speed="8.10" length="14.26" shape="6.38,-12.84 6.95,-16.74 8.59,-19.55 11.31,-21.27 15.11,-21.90"/>
    </edge>
    <edge id=":Node6_0" function="internal">
        <lane id=":Node6_0_0" index="0" speed="6.07" length="8.01" shape="37.89,-22.37 40.08,-22.11 41.63,-21.20 42.53,-19.64 42.79,-17.45"/>
    </edge>
    <edge id=":Node6_1" function="internal">
        <lane id=":Node6_1_0" index="0" speed="3.90" length="2.67" shape="39.59,-17.53 39.50,-18.27 39.20,-18.78 38.69,-19.09 37.95,-19.18"/>
    </edge>

    <edge id="-E3" from="Node4" to="Node1" priority="-1">
        <lane id="-E3_0" index="0" speed="13.89" length="28.18" shape="-36.75,-15.66 -36.64,12.53"/>
    </edge>
    <edge id="-E4" from="Node5" to="Node4" priority="-1">
        <lane id="-E4_0" index="0" speed="13.89" length="35.98" shape="0.76,-18.33 -35.20,-17.26"/>
    </edge>
    <edge id="-E5" from="Node6" to="Node5" priority="-1">
        <lane id="-E5_0" index="0" speed="13.89" length="22.78" shape="37.95,-19.18 15.17,-18.70"/>
    </edge>
    <edge id="-E6" from="Node3" to="Node6" priority="-1">
        <lane id="-E6_0" index="0" speed="13.89" length="30.61" shape="38.79,13.06 39.59,-17.53"/>
    </edge>
    <edge id="E3" from="Node1" to="Node4" priority="-1">
        <lane id="E3_0" index="0" speed="13.89" length="28.18" shape="-39.84,12.54 -39.95,-15.64"/>
    </edge>
    <edge id="E4" from="Node4" to="Node5" priority="-1">
        <lane id="E4_0" index="0" speed="13.89" length="35.98" shape="-35.30,-20.46 0.67,-21.53"/>
    </edge>
    <edge id="E5" from="Node5" to="Node6" priority="-1">
        <lane id="E5_0" index="0" speed="13.89" length="22.78" shape="15.11,-21.90 37.89,-22.37"/>
    </edge>
    <edge id="E6" from="Node6" to="Node3" priority="-1">
        <lane id="E6_0" index="0" speed="13.89" length="30.61" shape="42.79,-17.45 41.99,13.15"/>
    </edge>
    <edge id="Node-1-2-WB" from="Node2" to="Node1" priority="-1">
        <lane id="Node-1-2-WB_0" index="0" speed="13.89" length="35.65" shape="0.61,17.32 -35.04,17.32"/>
    </edge>
    <edge id="Node1-2-EB" from="Node1" to="Node2" priority="-1">
        <lane id="Node1-2-EB_0" index="0" speed="13.89" length="35.65" shape="-35.04,14.12 0.61,14.12"/>
    </edge>
    <edge id="Node2-3-NB" from="Node2" to="Node3" priority="-1">
        <lane id="Node2-3-NB_0" index="0" speed="13.89" length="22.24" shape="14.92,14.24 37.16,14.62"/>
    </edge>
    <edge id="Node2-3-WB" from="Node3" to="Node2" priority="-1">
        <lane id="Node2-3-WB_0" index="0" speed="13.89" length="22.24" shape="37.11,17.82 14.87,17.44"/>
    </edge>
    <edge id="Node2-5-SB" from="Node2" to="Node5" priority="-1">
        <lane id="Node2-5-SB_0" index="0" speed="13.89" length="21.41" shape="6.21,8.56 6.38,-12.84"/>
    </edge>
    <edge id="Node2-5NB" from="Node5" to="Node2" priority="-1">
        <lane id="Node2-5NB_0" index="0" speed="13.89" length="21.41" shape="9.58,-12.82 9.41,8.59"/>
    </edge>

    <tlLogic id="Node2" type="static" programID="0" offset="0">
        <phase duration="42" state="GgrrGG"/>
        <phase duration="3"  state="yyrrGy"/>
        <phase duration="42" state="rrGGGr"/>
        <phase duration="3"  state="rryyGr"/>
    </tlLogic>
    <tlLogic id="Node5" type="static" programID="0" offset="0">
        <phase duration="42" state="GGGgrr"/>
        <phase duration="3"  state="Gyyyrr"/>
        <phase duration="42" state="GrrrGG"/>
        <phase duration="3"  state="Grrryy"/>
    </tlLogic>

    <junction id="Node1" type="priority" x="-38.23" y="15.72" incLanes="Node-1-2-WB_0 -E3_0" intLanes=":Node1_0_0 :Node1_1_0" shape="-35.04,18.92 -35.04,12.52 -41.44,12.55 -40.72,16.09 -39.83,17.33 -38.58,18.21 -36.99,18.74">
        <request index="0" response="00" foes="00" cont="0"/>
        <request index="1" response="00" foes="00" cont="0"/>
    </junction>
    <junction id="Node2" type="traffic_light" x="7.76" y="15.72" incLanes="Node2-3-WB_0 Node2-5NB_0 Node1-2-EB_0" intLanes=":Node2_0_0 :Node2_6_0 :Node2_2_0 :Node2_3_0 :Node2_4_0 :Node2_5_0" shape="14.84,19.04 14.95,12.64 12.75,12.16 11.98,11.60 11.44,10.82 11.11,9.82 11.01,8.60 4.61,8.55 4.15,10.76 3.60,11.53 2.82,12.08 1.83,12.41 0.61,12.52 0.61,18.92">
        <request index="0" response="000000" foes="001000" cont="0"/>
        <request index="1" response="110000" foes="111000" cont="1"/>
        <request index="2" response="100000" foes="100000" cont="0"/>
        <request index="3" response="100011" foes="100011" cont="0"/>
        <request index="4" response="000000" foes="000010" cont="0"/>
        <request index="5" response="000000" foes="001110" cont="0"/>
    </junction>
    <junction id="Node3" type="priority" x="40.30" y="16.27" incLanes="E6_0 Node2-3-NB_0" intLanes=":Node3_0_0 :Node3_1_0" shape="43.59,13.19 37.19,13.02 37.08,19.42 40.62,18.78 41.88,17.92 42.79,16.70 43.36,15.12">
        <request index="0" response="00" foes="00" cont="0"/>
        <request index="1" response="00" foes="00" cont="0"/>
    </junction>
    <junction id="Node4" type="priority" x="-38.37" y="-18.77" incLanes="E3_0 -E4_0" intLanes=":Node4_0_0 :Node4_1_0" shape="-41.55,-15.64 -35.15,-15.66 -35.34,-22.06 -38.80,-21.26 -40.01,-20.36 -40.87,-19.12 -41.39,-17.55">
        <request index="0" response="00" foes="00" cont="0"/>
        <request index="1" response="00" foes="00" cont="0"/>
    </junction>
    <junction id="Node5" type="traffic_light" x="8.03" y="-20.15" incLanes="-E5_0 E4_0 Node2-5-SB_0" intLanes=":Node5_0_0 :Node5_1_0 :Node5_2_0 :Node5_6_0 :Node5_4_0 :Node5_5_0" shape="15.21,-17.10 15.07,-23.50 0.62,-23.13 0.81,-16.74 3.03,-16.36 3.80,-15.82 4.35,-15.06 4.68,-14.07 4.78,-12.85 11.18,-12.81 11.64,-15.15 12.20,-15.99 12.98,-16.59 13.99,-16.96">
        <request index="0" response="000000" foes="001000" cont="0"/>
        <request index="1" response="000000" foes="111000" cont="0"/>
        <request index="2" response="000000" foes="100000" cont="0"/>
        <request index="3" response="000011" foes="100011" cont="1"/>
        <request index="4" response="000010" foes="000010" cont="0"/>
        <request index="5" response="001110" foes="001110" cont="0"/>
    </junction>
    <junction id="Node6" type="priority" x="41.27" y="-20.84" incLanes="E5_0 -E6_0" intLanes=":Node6_0_0 :Node6_1_0" shape="37.85,-23.97 37.99,-17.58 44.39,-17.41 44.25,-19.45 43.74,-21.12 42.84,-22.40 41.56,-23.31 39.90,-23.83">
        <request index="0" response="00" foes="00" cont="0"/>
        <request index="1" response="00" foes="00" cont="0"/>
    </junction>

    <junction id=":Node2_6_0" type="internal" x="10.95" y="16.77" incLanes=":Node2_1_0 Node1-2-EB_0" intLanes=":Node2_3_0 :Node2_4_0 :Node2_5_0"/>
    <junction id=":Node5_6_0" type="internal" x="4.75" y="-21.00" incLanes=":Node5_3_0 -E5_0" intLanes=":Node5_0_0 :Node5_1_0 :Node5_5_0"/>

    <connection from="-E3" to="Node1-2-EB" fromLane="0" toLane="0" via=":Node1_1_0" dir="r" state="M"/>
    <connection from="-E4" to="-E3" fromLane="0" toLane="0" via=":Node4_1_0" dir="r" state="M"/>
    <connection from="-E5" to="Node2-5NB" fromLane="0" toLane="0" via=":Node5_0_0" tl="Node5" linkIndex="0" dir="r" state="O"/>
    <connection from="-E5" to="-E4" fromLane="0" toLane="0" via=":Node5_1_0" tl="Node5" linkIndex="1" dir="s" state="O"/>
    <connection from="-E6" to="-E5" fromLane="0" toLane="0" via=":Node6_1_0" dir="r" state="M"/>
    <connection from="E3" to="E4" fromLane="0" toLane="0" via=":Node4_0_0" dir="l" state="M"/>
    <connection from="E4" to="E5" fromLane="0" toLane="0" via=":Node5_2_0" tl="Node5" linkIndex="2" dir="s" state="O"/>
    <connection from="E4" to="Node2-5NB" fromLane="0" toLane="0" via=":Node5_3_0" tl="Node5" linkIndex="3" dir="l" state="o"/>
    <connection from="E5" to="E6" fromLane="0" toLane="0" via=":Node6_0_0" dir="l" state="M"/>
    <connection from="E6" to="Node2-3-WB" fromLane="0" toLane="0" via=":Node3_0_0" dir="l" state="M"/>
    <connection from="Node-1-2-WB" to="E3" fromLane="0" toLane="0" via=":Node1_0_0" dir="l" state="M"/>
    <connection from="Node1-2-EB" to="Node2-5-SB" fromLane="0" toLane="0" via=":Node2_4_0" tl="Node2" linkIndex="4" dir="r" state="O"/>
    <connection from="Node1-2-EB" to="Node2-3-NB" fromLane="0" toLane="0" via=":Node2_5_0" tl="Node2" linkIndex="5" dir="s" state="O"/>
    <connection from="Node2-3-NB" to="-E6" fromLane="0" toLane="0" via=":Node3_1_0" dir="r" state="M"/>
    <connection from="Node2-3-WB" to="Node-1-2-WB" fromLane="0" toLane="0" via=":Node2_0_0" tl="Node2" linkIndex="0" dir="s" state="O"/>
    <connection from="Node2-3-WB" to="Node2-5-SB" fromLane="0" toLane="0" via=":Node2_1_0" tl="Node2" linkIndex="1" dir="l" state="o"/>
    <connection from="Node2-5-SB" to="-E4" fromLane="0" toLane="0" via=":Node5_4_0" tl="Node5" linkIndex="4" dir="r" state="o"/>
    <connection from="Node2-5-SB" to="E5" fromLane="0" toLane="0" via=":Node5_5_0" tl="Node5" linkIndex="5" dir="l" state="o"/>
    <connection from="Node2-5NB" to="Node2-3-NB" fromLane="0" toLane="0" via=":Node2_2_0" tl="Node2" linkIndex="2" dir="r" state="o"/>
    <connection from="Node2-5NB" to="Node-1-2-WB" fromLane="0" toLane="0" via=":Node2_3_0" tl="Node2" linkIndex="3" dir="l" state="o"/>

    <connection from=":Node1_0" to="E3" fromLane="0" toLane="0" dir="l" state="M"/>
    <connection from=":Node1_1" to="Node1-2-EB" fromLane="0" toLane="0" dir="r" state="M"/>
    <connection from=":Node2_0" to="Node-1-2-WB" fromLane="0" toLane="0" dir="s" state="M"/>
    <connection from=":Node2_1" to="Node2-5-SB" fromLane="0" toLane="0" via=":Node2_6_0" dir="l" state="m"/>
    <connection from=":Node2_6" to="Node2-5-SB" fromLane="0" toLane="0" dir="l" state="M"/>
    <connection from=":Node2_2" to="Node2-3-NB" fromLane="0" toLane="0" dir="r" state="M"/>
    <connection from=":Node2_3" to="Node-1-2-WB" fromLane="0" toLane="0" dir="l" state="M"/>
    <connection from=":Node2_4" to="Node2-5-SB" fromLane="0" toLane="0" dir="r" state="M"/>
    <connection from=":Node2_5" to="Node2-3-NB" fromLane="0" toLane="0" dir="s" state="M"/>
    <connection from=":Node3_0" to="Node2-3-WB" fromLane="0" toLane="0" dir="l" state="M"/>
    <connection from=":Node3_1" to="-E6" fromLane="0" toLane="0" dir="r" state="M"/>
    <connection from=":Node4_0" to="E4" fromLane="0" toLane="0" dir="l" state="M"/>
    <connection from=":Node4_1" to="-E3" fromLane="0" toLane="0" dir="r" state="M"/>
    <connection from=":Node5_0" to="Node2-5NB" fromLane="0" toLane="0" dir="r" state="M"/>
    <connection from=":Node5_1" to="-E4" fromLane="0" toLane="0" dir="s" state="M"/>
    <connection from=":Node5_2" to="E5" fromLane="0" toLane="0" dir="s" state="M"/>
    <connection from=":Node5_3" to="Node2-5NB" fromLane="0" toLane="0" via=":Node5_6_0" dir="l" state="m"/>
    <connection from=":Node5_6" to="Node2-5NB" fromLane="0" toLane="0" dir="l" state="M"/>
    <connection from=":Node5_4" to="-E4" fromLane="0" toLane="0" dir="r" state="M"/>
    <connection from=":Node5_5" to="E5" fromLane="0" toLane="0" dir="l" state="M"/>
    <connection from=":Node6_0" to="E6" fromLane="0" toLane="0" dir="l" state="M"/>
    <connection from=":Node6_1" to="-E5" fromLane="0" toLane="0" dir="r" state="M"/>

</net>
