<?xml version="1.0" encoding="UTF-8"?>

<!-- generated on 2025-03-22 16:36:10 by Eclipse SUMO netedit Version 1.22.0
-->

<routes xmlns:xsi="http://www.w3.org/2001/XMLSchema-instance" xsi:noNamespaceSchemaLocation="http://sumo.dlr.de/xsd/routes_file.xsd">
    <!-- Vehicles, persons and containers (sorted by depart) -->
    <trip id="emergency" depart="0.00" from="Node1-2-EB" to="E5" via="Node2-5-SB"/>
    <flow id="f_0" begin="0.00" from="E4" to="Node2-3-NB" via="Node2-5NB" end="3600.00" vehsPerHour="1800"/>
</routes>
